! RI-MP2 RIJK def2-TZVP def2-TZVP/C def2-TZVP/JK TIGHTSCF
% maxcore 2000
% mp2 density relaxed end
*xyz 0 1
 C        0.5995394918     0.0000000000     1.0000000000 
 C       -0.5995394918     0.0000000000     1.0000000000 
 H       -1.6616385861     0.0000000000     1.0000000000 
 H        1.6616385861     0.0000000000     1.0000000000 
*
